116
Coordinates from ORCA-job Fe4S4
  Fe  3.43481475063511     10.02621825175162      0.93666930958636
  Fe  4.11004366906650     12.43390841057556      2.67936025736757
  Fe  2.04466773144237     10.12118661968179      3.57814771635207
  Fe  4.98248834536335      9.77173265454365      3.75145081055727
  Si  2.26652970103315     10.19864865429273     -2.07812384889402
  Si  4.28391788881387      7.90618065703624     -1.30350471795156
  Si  5.83684987334062     14.71176433379787      1.25052608642863
  Si  3.63726598268627     15.54025676215274      3.38194310477496
  Si  -0.48260210496089     10.46096324298864      5.56585510758146
  Si  -0.37945062061184      8.09397473878628      3.46961858092232
  Si  5.77721942087685      7.79731554188558      6.12939948064072
  Si  8.01519122921582      9.32322006435980      4.42373172172326
  S   2.04186563617030     11.65405449081148      1.72236369827097
  S   5.54494841559486     10.90745671891133      1.74994904970632
  S   3.32365914402566      8.42370054415364      2.71904420594960
  S   3.69152370435330     11.36723309772070      4.78421184204563
  N   3.30639987929819      9.37327927797237     -0.82227381675946
  N   4.53062823522585     14.25857581338432      2.44829292670062
  N   0.37854096923566      9.56704808411430      4.23771801533697
  N   6.28450714709899      8.93087649399310      4.80792011402834
  C   0.69360758868216     11.01454074900694     -1.35778523076388
  H   0.15309759515683     10.32087354799379     -0.68698491837231
  H   0.01839773973842     11.26809447497411     -2.19917170794254
  H   0.89583900191749     11.94091498710404     -0.79393345020810
  C   3.32477739623203     11.51101441077883     -2.98093507436495
  H   3.75823005971177     12.23951980792468     -2.27007407233005
  H   2.70944030836463     12.07040734346925     -3.71335919064721
  H   4.16190487024726     11.03895204193713     -3.52897655000195
  C   1.59368040737711      8.96761811095074     -3.38563797123242
  H   2.37744768668893      8.41521427969727     -3.93312057392689
  H   1.01091409020607      9.54602404927321     -4.13051850867303
  H   0.90925431402790      8.22963349940223     -2.92657811761748
  C   3.14935103680045      6.37903246184406     -1.51496321461397
  H   2.58776243978239      6.17162370065630     -0.58409189498811
  H   3.76751568437902      5.48880199759353     -1.74778499628262
  H   2.41510631423542      6.50321309815048     -2.33000218158908
  C   5.60253173295759      7.43942637910130     -0.00221019797714
  H   6.27829673411757      8.27848933573039      0.24295176529091
  H   6.22273488145714      6.62084802613291     -0.41950833565533
  H   5.15411681119762      7.07609600069929      0.94017531179681
  C   5.23491754968918      8.20768585333653     -2.94139543731224
  H   4.57024323736047      8.35902528855473     -3.81097944633102
  H   5.86914763705519      7.32495974549171     -3.15607224080915
  H   5.90091495724598      9.08832419050240     -2.86244810948006
  C   5.90575510122622     16.58929363906057      0.85064132100039
  H   5.02109719023343     16.93336116207844      0.28471950056166
  H   6.79213431019475     16.75744219207263      0.20653019368234
  H   6.01991462014506     17.23353661168769      1.74075998988289
  C   7.56655513775605     14.25837720349594      1.93230818867650
  H   7.75403108635995     14.75782433989154      2.90251481896621
  H   8.34856608196141     14.59132256871186      1.22174837601252
  H   7.68530565131077     13.17139144557077      2.08373472646545
  C   5.52184777230060     13.86665400261835     -0.43792894530484
  H   5.53247183890145     12.76462237290762     -0.37802015870134
  H   6.30234336074959     14.17377294846790     -1.16157748743278
  H   4.54173316941575     14.18160183316400     -0.84457154435167
  C   4.85122541584851     16.54924704815746      4.46987098805972
  H   5.37168288788370     15.88464914898868      5.18651778468301
  H   4.29216533621749     17.30691093305802      5.05441327913494
  H   5.62168031647815     17.07898132020837      3.88036588400328
  C   2.65472962537958     16.70232107891845      2.21573875218305
  H   3.30094012954097     17.32700169620562      1.57520311755945
  H   2.02417389949341     17.38187125731249      2.82376683923452
  H   1.98406910388228     16.11659391164557      1.55803788398042
  C   2.35027154622094     14.77468992512334      4.56774063262393
  H   1.61513300983577     14.14232287063296      4.03559191170118
  H   1.79107367219454     15.59311695488798      5.06403396561298
  H   2.82332343989345     14.16230166142967      5.35603118905425
  C   0.67697061548535     11.64500614267541      6.51357341390758
  H   1.50965212288710     11.10112204915857      6.99784882689990
  H   0.08894108672498     12.14564285789904      7.30923515557935
  H   1.11305119979752     12.43248660081924      5.87436974545219
  C   -1.90266317118943     11.50172203028476      4.81524231599678
  H   -1.50516601920472     12.21067892898220      4.06353660765607
  H   -2.41062382025799     12.09148077249301      5.60482084179501
  H   -2.66267625920255     10.87235452857633      4.31812447663056
  C   -1.16470203840841      9.25974916282155      6.89654877279340
  H   -1.91250028577111      8.54427090213649      6.51173279715148
  H   -1.64824988417096      9.85052511504289      7.70032046073556
  H   -0.34167087236249      8.67721894921123      7.35460090544056
  C   0.26443676268775      6.48764990719830      4.28632201357977
  H   1.35779567009801      6.38197440080021      4.16041365075660
  H   -0.22162812506862      5.60701117211022      3.82162640831816
  H   0.04182382546944      6.46881973260520      5.37047751064531
  C   -0.05576697005809      8.04051258273152      1.58674514545084
  H   -0.32507430828227      9.00718369420183      1.12030828836868
  H   -0.70181618855691      7.26068806019203      1.13780846581833
  H   0.98793369232717      7.80777209097185      1.31803997776217
  C   -2.29212521106501      8.09744325264973      3.59163256679264
  H   -2.68702467392462      8.11275360340912      4.62218802829546
  H   -2.66393246137364      7.17197234762010      3.10810716355065
  H   -2.73007151421975      8.95178582331108      3.04229017829549
  C   3.87606720103334      7.79909446266143      6.33280164858318
  H   3.49072734463058      8.79982079784908      6.60337333293022
  H   3.61048396979732      7.10542849460494      7.15521902040592
  H   3.34075838181889      7.45921413954983      5.42901481820998
  C   6.33949021494200      6.01202347673736      5.71642547168480
  H   5.93980510426037      5.69021968375739      4.73595002987608
  H   5.96446403278902      5.30723239287401      6.48477716041799
  H   7.44148960013732      5.91735923676431      5.68355851295731
  C   6.46508207677679      8.29969051819955      7.84711750587958
  H   7.54627291573285      8.10240498388738      7.95828642751094
  H   5.93529250938673      7.72011856513863      8.62915341990938
  H   6.28646394919815      9.37419671268649      8.04577910275751
  C   8.47968313103123      8.62445809019753      2.70521052189336
  H   8.38463179842896      7.52158352570915      2.68289999532672
  H   9.52588926972773      8.88550662791614      2.44935417114265
  H   7.82417701414350      9.03380942530833      1.91563410646370
  C   9.24742074571264      8.62671694895023      5.71066806282012
  H   9.14736970505993      9.13399833601076      6.68760158463750
  H   10.27551999468526      8.81326097778024      5.34001678489620
  H   9.14532288140301      7.53779892766416      5.87506508126182
  C   8.23057539743991     11.22034312880538      4.43889416228385
  H   7.53348995443380     11.72214163029576      3.74571853004825
  H   9.25880532732494     11.50182828611171      4.13671190493662
  H   8.04489153178858     11.62426996312262      5.45289841786946
